*Heading
** Job name: 10_CPE6 Model name: Model-1
** Generated by: Abaqus/CAE 2020
*Preprint, echo=NO, model=NO, history=NO, contact=NO
**
** PARTS
**
*Part, name=Part-1
*Node
      1,           0.,          44.
      2,           0.,   39.5999985
      3,           0.,   35.2000008
      4,           0.,   30.7999992
      5,           0.,   26.3999996
      6,           0.,          22.
      7,           0.,   17.6000004
      8,           0.,   13.1999998
      9,           0.,   8.80000019
     10,           0.,    4.4000001
     11,           0.,           0.
     12,   4.80000019,   45.5999985
     13,   4.80000019,   41.4799995
     14,   4.80000019,   37.3600006
     15,   4.80000019,   33.2400017
     16,   4.80000019,   29.1200008
     17,   4.80000019,          25.
     18,   4.80000019,   20.8799992
     19,   4.80000019,   16.7600002
     20,   4.80000019,   12.6400003
** ... 421 like lines cut
*Element, type=CPE6
  1,   1,   2,  13, 122, 123, 124
  2,  13,  12,   1, 125, 126, 124
  3,   2,   3,  14, 127, 128, 129
  4,  14,  13,   2, 130, 123, 129
  5,   3,   4,  15, 131, 132, 133
  6,  15,  14,   3, 134, 128, 133
  7,   4,   5,  16, 135, 136, 137
  8,  16,  15,   4, 138, 132, 137
  9,   5,   6,  17, 139, 140, 141
 10,  17,  16,   5, 142, 136, 141
 11,   6,   7,  18, 143, 144, 145
 12,  18,  17,   6, 146, 140, 145
 13,   7,   8,  19, 147, 148, 149
 14,  19,  18,   7, 150, 144, 149
 15,   8,   9,  20, 151, 152, 153
 16,  20,  19,   8, 154, 148, 153
 17,   9,  10,  21, 155, 156, 157
 18,  21,  20,   9, 158, 152, 157
 19,  10,  11,  22, 159, 160, 161
 20,  22,  21,  10, 162, 156, 161
** ... 180 like lines cut
*Nset, nset=Set-1, generate
   1,  441,    1
*Elset, elset=Set-1, generate
   1,  200,    1
*Nset, nset=Set-24, generate
   1,  441,    1
*Elset, elset=Set-24, generate
   1,  200,    1
** Section: Section-1
*Solid Section, elset=Set-1, material=Material-1
1.,
*End Part
**  
**
** ASSEMBLY
**
*Assembly, name=Assembly
**  
*Instance, name=Part-1-1, part=Part-1
*End Instance
**  
*Instance, name=Part-1-2, part=Part-1
*End Instance
**  
*Nset, nset=Set-1, instance=Part-1-1
   1,   2,   3,   4,   5,   6,   7,   8,   9,  10,  11, 122, 127, 131, 135, 139
 143, 147, 151, 155, 159
*Elset, elset=Set-1, instance=Part-1-1, generate
  1,  19,   2
*Elset, elset=_Surf-1_S1, internal, instance=Part-1-1, generate
 182,  200,    2
*Surface, type=ELEMENT, name=Surf-1
_Surf-1_S1, S1
*End Assembly
** 
** MATERIALS
** 
*Material, name=Material-1
*Elastic
50., 0.3
** ----------------------------------------------------------------
** 
** STEP: Step-1
** 
*Step, name=Step-1, nlgeom=NO
*Static
1., 1., 1e-05, 1.
** 
** BOUNDARY CONDITIONS
** 
** Name: BC-1 Type: Symmetry/Antisymmetry/Encastre
*Boundary
Set-1, ENCASTRE
** 
** LOADS
** 
** Name: Load-1   Type: Surface traction
*Dsload
Surf-1, TRSHR, 1., 0., 1., 0.
** 
** OUTPUT REQUESTS
** 
*Restart, write, frequency=0
** 
** FIELD OUTPUT: F-Output-1
** 
*Output, field, variable=PRESELECT
** 
** HISTORY OUTPUT: H-Output-1
** 
*Output, history, variable=PRESELECT
*End Step
