*Heading
** Job name: 10_CPE6_long Model name: Model-1
** Generated by: Abaqus/CAE 2020
*Preprint, echo=NO, model=NO, history=NO, contact=NO
**
** PARTS
**
*Part, name=Part-1
*Node
      1,           0.,          44.
      2,           0.,   39.5999985
      3,           0.,   35.2000008
      4,           0.,   30.7999992
      5,           0.,   26.3999996
      6,           0.,          22.
      7,           0.,   17.6000004
      8,           0.,   13.1999998
      9,           0.,   8.80000019
     10,           0.,    4.4000001
     11,           0.,           0.
     12,   4.80000019,   45.5999985
     13,   4.80000019,   41.4799995
     14,   4.80000019,   37.3600006
     15,   4.80000019,   33.2400017
     16,   4.80000019,   29.1200008
     17,   4.80000019,          25.
     18,   4.80000019,   20.8799992
     19,   4.80000019,   16.7600002
     20,   4.80000019,   12.6400003
** ... 421 like lines cut
*Element, type=CPE6
  1,  13,  12,   2, 122, 123, 124
  2,   1,   2,  12, 125, 123, 126
  3,  14,  13,   3, 127, 128, 129
  4,   2,   3,  13, 130, 128, 124
  5,  15,  14,   4, 131, 132, 133
  6,   3,   4,  14, 134, 132, 129
  7,  16,  15,   5, 135, 136, 137
  8,   4,   5,  15, 138, 136, 133
  9,  17,  16,   6, 139, 140, 141
 10,   5,   6,  16, 142, 140, 137
 11,  18,  17,   7, 143, 144, 145
 12,   6,   7,  17, 146, 144, 141
 13,  19,  18,   8, 147, 148, 149
 14,   7,   8,  18, 150, 148, 145
 15,  20,  19,   9, 151, 152, 153
 16,   8,   9,  19, 154, 152, 149
 17,  21,  20,  10, 155, 156, 157
 18,   9,  10,  20, 158, 156, 153
 19,  22,  21,  11, 159, 160, 161
 20,  10,  11,  21, 162, 160, 157
** ... 180 like lines cut
*Nset, nset=Set-1, generate
   1,  441,    1
*Elset, elset=Set-1, generate
   1,  200,    1
*Nset, nset=Set-24, generate
   1,  441,    1
*Elset, elset=Set-24, generate
   1,  200,    1
** Section: Section-1
*Solid Section, elset=Set-1, material=Material-1
1.,
*End Part
**  
**
** ASSEMBLY
**
*Assembly, name=Assembly
**  
*Instance, name=Part-1-1, part=Part-1
*End Instance
**  
*Instance, name=Part-1-2, part=Part-1
*End Instance
**  
*Nset, nset=Set-1, instance=Part-1-1
   1,   2,   3,   4,   5,   6,   7,   8,   9,  10,  11, 125, 130, 134, 138, 142
 146, 150, 154, 158, 162
*Elset, elset=Set-1, instance=Part-1-1, generate
  2,  20,   2
*Elset, elset=_Surf-1_S1, internal, instance=Part-1-1, generate
 181,  199,    2
*Surface, type=ELEMENT, name=Surf-1
_Surf-1_S1, S1
*End Assembly
** 
** MATERIALS
** 
*Material, name=Material-1
*Elastic
50., 0.3
** ----------------------------------------------------------------
** 
** STEP: Step-1
** 
*Step, name=Step-1, nlgeom=NO
*Static
1., 1., 1e-05, 1.
** 
** BOUNDARY CONDITIONS
** 
** Name: BC-1 Type: Symmetry/Antisymmetry/Encastre
*Boundary
Set-1, ENCASTRE
** 
** LOADS
** 
** Name: Load-1   Type: Surface traction
*Dsload
Surf-1, TRSHR, 1., 0., 1., 0.
** 
** OUTPUT REQUESTS
** 
*Restart, write, frequency=0
** 
** FIELD OUTPUT: F-Output-1
** 
*Output, field, variable=PRESELECT
** 
** HISTORY OUTPUT: H-Output-1
** 
*Output, history, variable=PRESELECT
*End Step
