*Heading
** Job name: 10_CPE8 Model name: Model-1
** Generated by: Abaqus/CAE 2020
*Preprint, echo=NO, model=NO, history=NO, contact=NO
**
** PARTS
**
*Part, name=Part-1
*Node
      1,           0.,          44.
      2,           0.,   39.5999985
      3,           0.,   35.2000008
      4,           0.,   30.7999992
      5,           0.,   26.3999996
      6,           0.,          22.
      7,           0.,   17.6000004
      8,           0.,   13.1999998
      9,           0.,   8.80000019
     10,           0.,    4.4000001
     11,           0.,           0.
     12,   4.80000019,   45.5999985
     13,   4.80000019,   41.4799995
     14,   4.80000019,   37.3600006
     15,   4.80000019,   33.2400017
     16,   4.80000019,   29.1200008
     17,   4.80000019,          25.
     18,   4.80000019,   20.8799992
     19,   4.80000019,   16.7600002
     20,   4.80000019,   12.6400003
** ... 321 like lines cut
*Element, type=CPE8
  1,   1,   2,  13,  12, 122, 123, 124, 125
  2,   2,   3,  14,  13, 126, 127, 128, 123
  3,   3,   4,  15,  14, 129, 130, 131, 127
  4,   4,   5,  16,  15, 132, 133, 134, 130
  5,   5,   6,  17,  16, 135, 136, 137, 133
  6,   6,   7,  18,  17, 138, 139, 140, 136
  7,   7,   8,  19,  18, 141, 142, 143, 139
  8,   8,   9,  20,  19, 144, 145, 146, 142
  9,   9,  10,  21,  20, 147, 148, 149, 145
 10,  10,  11,  22,  21, 150, 151, 152, 148
 11,  12,  13,  24,  23, 124, 153, 154, 155
 12,  13,  14,  25,  24, 128, 156, 157, 153
 13,  14,  15,  26,  25, 131, 158, 159, 156
 14,  15,  16,  27,  26, 134, 160, 161, 158
 15,  16,  17,  28,  27, 137, 162, 163, 160
 16,  17,  18,  29,  28, 140, 164, 165, 162
 17,  18,  19,  30,  29, 143, 166, 167, 164
 18,  19,  20,  31,  30, 146, 168, 169, 166
 19,  20,  21,  32,  31, 149, 170, 171, 168
 20,  21,  22,  33,  32, 152, 172, 173, 170
** ... 80 like lines cut
*Nset, nset=Set-1, generate
   1,  341,    1
*Elset, elset=Set-1, generate
   1,  100,    1
** Section: Section-1
*Solid Section, elset=Set-1, material=Material-1
1.,
*End Part
**  
**
** ASSEMBLY
**
*Assembly, name=Assembly
**  
*Instance, name=Part-1-1, part=Part-1
*End Instance
**  
*Nset, nset=Set-1, instance=Part-1-1
   1,   2,   3,   4,   5,   6,   7,   8,   9,  10,  11, 122, 126, 129, 132, 135
 138, 141, 144, 147, 150
*Elset, elset=Set-1, instance=Part-1-1, generate
  1,  10,   1
*Elset, elset=_Surf-1_S3, internal, instance=Part-1-1, generate
  91,  100,    1
*Surface, type=ELEMENT, name=Surf-1
_Surf-1_S3, S3
*End Assembly
** 
** MATERIALS
** 
*Material, name=Material-1
*Elastic
50., 0.4949
** ----------------------------------------------------------------
** 
** STEP: Step-1
** 
*Step, name=Step-1, nlgeom=NO
*Static
1., 1., 1e-05, 1.
** 
** BOUNDARY CONDITIONS
** 
** Name: BC-1 Type: Symmetry/Antisymmetry/Encastre
*Boundary
Set-1, ENCASTRE
** 
** LOADS
** 
** Name: Load-1   Type: Surface traction
*Dsload
Surf-1, TRSHR, 1., 0., 1., 0.
** 
** OUTPUT REQUESTS
** 
*Restart, write, frequency=0
** 
** FIELD OUTPUT: F-Output-1
** 
*Output, field, variable=PRESELECT
** 
** HISTORY OUTPUT: H-Output-1
** 
*Output, history, variable=PRESELECT
*End Step
