*Heading
** Job name: 15_CPE6 Model name: Model-1
** Generated by: Abaqus/CAE 2020
*Preprint, echo=NO, model=NO, history=NO, contact=NO
**
** PARTS
**
*Part, name=Part-1
*Node
      1,           0.,          44.
      2,           0.,   41.0666656
      3,           0.,   38.1333351
      4,           0.,   35.2000008
      5,           0.,   32.2666664
      6,           0.,    29.333334
      7,           0.,   26.3999996
      8,           0.,   23.4666672
      9,           0.,   20.5333328
     10,           0.,   17.6000004
     11,           0.,    14.666667
     12,           0.,   11.7333336
     13,           0.,   8.80000019
     14,           0.,   5.86666679
     15,           0.,    2.9333334
     16,           0.,           0.
     17,   3.20000005,   45.0666656
     18,   3.20000005,   42.2577782
     19,   3.20000005,   39.4488907
     20,   3.20000005,   36.6399994
** ... 941 like lines cut
*Element, type=CPE6
  1,   1,   2,  18, 257, 258, 259
  2,  18,  17,   1, 260, 261, 259
  3,   2,   3,  19, 262, 263, 264
  4,  19,  18,   2, 265, 258, 264
  5,   3,   4,  20, 266, 267, 268
  6,  20,  19,   3, 269, 263, 268
  7,   4,   5,  21, 270, 271, 272
  8,  21,  20,   4, 273, 267, 272
  9,   5,   6,  22, 274, 275, 276
 10,  22,  21,   5, 277, 271, 276
 11,   6,   7,  23, 278, 279, 280
 12,  23,  22,   6, 281, 275, 280
 13,   7,   8,  24, 282, 283, 284
 14,  24,  23,   7, 285, 279, 284
 15,   8,   9,  25, 286, 287, 288
 16,  25,  24,   8, 289, 283, 288
 17,   9,  10,  26, 290, 291, 292
 18,  26,  25,   9, 293, 287, 292
 19,  10,  11,  27, 294, 295, 296
 20,  27,  26,  10, 297, 291, 296
** ... 430 like lines cut
*Nset, nset=Set-1, generate
   1,  961,    1
*Elset, elset=Set-1, generate
   1,  450,    1
*Nset, nset=Set-24, generate
   1,  961,    1
*Elset, elset=Set-24, generate
   1,  450,    1
** Section: Section-1
*Solid Section, elset=Set-1, material=Material-1
1.,
*End Part
**  
**
** ASSEMBLY
**
*Assembly, name=Assembly
**  
*Instance, name=Part-1-1, part=Part-1
*End Instance
**  
*Instance, name=Part-1-2, part=Part-1
*End Instance
**  
*Nset, nset=Set-1, instance=Part-1-1
   1,   2,   3,   4,   5,   6,   7,   8,   9,  10,  11,  12,  13,  14,  15,  16
 257, 262, 266, 270, 274, 278, 282, 286, 290, 294, 298, 302, 306, 310, 314
*Elset, elset=Set-1, instance=Part-1-1, generate
  1,  29,   2
*Elset, elset=_Surf-1_S1, internal, instance=Part-1-1, generate
 422,  450,    2
*Surface, type=ELEMENT, name=Surf-1
_Surf-1_S1, S1
*End Assembly
** 
** MATERIALS
** 
*Material, name=Material-1
*Elastic
50., 0.3
** ----------------------------------------------------------------
** 
** STEP: Step-1
** 
*Step, name=Step-1, nlgeom=NO
*Static
1., 1., 1e-05, 1.
** 
** BOUNDARY CONDITIONS
** 
** Name: BC-1 Type: Symmetry/Antisymmetry/Encastre
*Boundary
Set-1, ENCASTRE
** 
** LOADS
** 
** Name: Load-1   Type: Surface traction
*Dsload
Surf-1, TRSHR, 1., 0., 1., 0.
** 
** OUTPUT REQUESTS
** 
*Restart, write, frequency=0
** 
** FIELD OUTPUT: F-Output-1
** 
*Output, field, variable=PRESELECT
** 
** HISTORY OUTPUT: H-Output-1
** 
*Output, history, variable=PRESELECT
*End Step
