*Heading
** Job name: 30_CPE4R Model name: Model-1
** Generated by: Abaqus/CAE 2020
*Preprint, echo=NO, model=NO, history=NO, contact=NO
**
** PARTS
**
*Part, name=Part-1
*Node
      1,           0.,          44.
      2,           0.,   42.5333328
      3,           0.,   41.0666656
      4,           0.,   39.5999985
      5,           0.,   38.1333351
      6,           0.,   36.6666679
      7,           0.,   35.2000008
      8,           0.,   33.7333336
      9,           0.,   32.2666664
     10,           0.,   30.7999992
     11,           0.,    29.333334
     12,           0.,   27.8666668
     13,           0.,   26.3999996
     14,           0.,   24.9333324
     15,           0.,   23.4666672
     16,           0.,          22.
     17,           0.,   20.5333328
     18,           0.,   19.0666676
     19,           0.,   17.6000004
     20,           0.,   16.1333332
** ... 941 like lines cut
*Element, type=CPE4R
  1,   1,   2,  33,  32
  2,   2,   3,  34,  33
  3,   3,   4,  35,  34
  4,   4,   5,  36,  35
  5,   5,   6,  37,  36
  6,   6,   7,  38,  37
  7,   7,   8,  39,  38
  8,   8,   9,  40,  39
  9,   9,  10,  41,  40
 10,  10,  11,  42,  41
 11,  11,  12,  43,  42
 12,  12,  13,  44,  43
 13,  13,  14,  45,  44
 14,  14,  15,  46,  45
 15,  15,  16,  47,  46
 16,  16,  17,  48,  47
 17,  17,  18,  49,  48
 18,  18,  19,  50,  49
 19,  19,  20,  51,  50
 20,  20,  21,  52,  51
** ... 880 like lines cut
*Nset, nset=Set-1, generate
   1,  961,    1
*Elset, elset=Set-1, generate
   1,  900,    1
** Section: Section-1
*Solid Section, elset=Set-1, material=Material-1
1.,
*End Part
**  
**
** ASSEMBLY
**
*Assembly, name=Assembly
**  
*Instance, name=Part-1-1, part=Part-1
*End Instance
**  
*Nset, nset=Set-1, instance=Part-1-1, generate
  1,  31,   1
*Elset, elset=Set-1, instance=Part-1-1, generate
  1,  30,   1
*Elset, elset=_Surf-1_S3, internal, instance=Part-1-1, generate
 871,  900,    1
*Surface, type=ELEMENT, name=Surf-1
_Surf-1_S3, S3
*End Assembly
** 
** MATERIALS
** 
*Material, name=Material-1
*Elastic
250., 0.4999
** ----------------------------------------------------------------
** 
** STEP: Step-1
** 
*Step, name=Step-1, nlgeom=NO
*Static
1., 1., 1e-05, 1.
** 
** BOUNDARY CONDITIONS
** 
** Name: BC-1 Type: Symmetry/Antisymmetry/Encastre
*Boundary
Set-1, ENCASTRE
** 
** LOADS
** 
** Name: Load-1   Type: Surface traction
*Dsload
Surf-1, TRSHR, 100., 0., 1., 0.
** 
** OUTPUT REQUESTS
** 
*Restart, write, frequency=0
** 
** FIELD OUTPUT: F-Output-1
** 
*Output, field, variable=PRESELECT
** 
** HISTORY OUTPUT: H-Output-1
** 
*Output, history, variable=PRESELECT
*End Step
