*Heading
** Job name: 4_CPE6 Model name: Model-1
** Generated by: Abaqus/CAE 2020
*Preprint, echo=NO, model=NO, history=NO, contact=NO
**
** PARTS
**
*Part, name=Part-1
*Node
      1,           0.,          44.
      2,           0.,          33.
      3,           0.,          22.
      4,           0.,          11.
      5,           0.,           0.
      6,          12.,          48.
      7,          12.,        38.75
      8,          12.,         29.5
      9,          12.,        20.25
     10,          12.,          11.
     11,          24.,          52.
     12,          24.,         44.5
     13,          24.,          37.
     14,          24.,         29.5
     15,          24.,          22.
     16,          36.,          56.
     17,          36.,        50.25
     18,          36.,         44.5
     19,          36.,        38.75
     20,          36.,          33.
** ... 61 like lines cut
*Element, type=CPE6
 1,  1,  2,  7, 26, 27, 28
 2,  7,  6,  1, 29, 30, 28
 3,  2,  3,  8, 31, 32, 33
 4,  8,  7,  2, 34, 27, 33
 5,  3,  4,  9, 35, 36, 37
 6,  9,  8,  3, 38, 32, 37
 7,  4,  5, 10, 39, 40, 41
 8, 10,  9,  4, 42, 36, 41
 9,  6,  7, 12, 29, 43, 44
10, 12, 11,  6, 45, 46, 44
11,  7,  8, 13, 34, 47, 48
12, 13, 12,  7, 49, 43, 48
13,  8,  9, 14, 38, 50, 51
14, 14, 13,  8, 52, 47, 51
15,  9, 10, 15, 42, 53, 54
16, 15, 14,  9, 55, 50, 54
17, 11, 12, 17, 45, 56, 57
18, 17, 16, 11, 58, 59, 57
19, 12, 13, 18, 49, 60, 61
20, 18, 17, 12, 62, 56, 61
** ... 12 like lines cut
*Nset, nset=Set-1, generate
  1,  81,   1
*Elset, elset=Set-1, generate
  1,  32,   1
*Nset, nset=Set-24, generate
  1,  81,   1
*Elset, elset=Set-24, generate
  1,  32,   1
** Section: Section-1
*Solid Section, elset=Set-1, material=Material-1
1.,
*End Part
**  
**
** ASSEMBLY
**
*Assembly, name=Assembly
**  
*Instance, name=Part-1-1, part=Part-1
*End Instance
**  
*Instance, name=Part-1-2, part=Part-1
*End Instance
**  
*Nset, nset=Set-1, instance=Part-1-1
  1,  2,  3,  4,  5, 26, 31, 35, 39
*Elset, elset=Set-1, instance=Part-1-1, generate
 1,  7,  2
*Elset, elset=_Surf-1_S1, internal, instance=Part-1-1, generate
 26,  32,   2
*Surface, type=ELEMENT, name=Surf-1
_Surf-1_S1, S1
*End Assembly
** 
** MATERIALS
** 
*Material, name=Material-1
*Elastic
50., 0.3
** ----------------------------------------------------------------
** 
** STEP: Step-1
** 
*Step, name=Step-1, nlgeom=NO
*Static
1., 1., 1e-05, 1.
** 
** BOUNDARY CONDITIONS
** 
** Name: BC-1 Type: Symmetry/Antisymmetry/Encastre
*Boundary
Set-1, ENCASTRE
** 
** LOADS
** 
** Name: Load-1   Type: Surface traction
*Dsload
Surf-1, TRSHR, 1., 0., 1., 0.
** 
** OUTPUT REQUESTS
** 
*Restart, write, frequency=0
** 
** FIELD OUTPUT: F-Output-1
** 
*Output, field, variable=PRESELECT
** 
** HISTORY OUTPUT: H-Output-1
** 
*Output, history, variable=PRESELECT
*End Step
