*Heading
** Job name: 50_CPE8 Model name: Model-1
** Generated by: Abaqus/CAE 2020
*Preprint, echo=NO, model=NO, history=NO, contact=NO
**
** PARTS
**
*Part, name=Part-1
*Node
      1,           0.,          44.
      2,           0.,   43.1199989
      3,           0.,   42.2400017
      4,           0.,   41.3600006
      5,           0.,   40.4799995
      6,           0.,   39.5999985
      7,           0.,   38.7200012
      8,           0.,   37.8400002
      9,           0.,   36.9599991
     10,           0.,   36.0800018
     11,           0.,   35.2000008
     12,           0.,   34.3199997
     13,           0.,   33.4399986
     14,           0.,   32.5600014
     15,           0.,   31.6800003
     16,           0.,   30.7999992
     17,           0.,   29.9200001
     18,           0.,   29.0400009
     19,           0.,   28.1599998
     20,           0.,   27.2800007
** ... 7681 like lines cut
*Element, type=CPE8
   1,    1,    2,   53,   52, 2602, 2603, 2604, 2605
   2,    2,    3,   54,   53, 2606, 2607, 2608, 2603
   3,    3,    4,   55,   54, 2609, 2610, 2611, 2607
   4,    4,    5,   56,   55, 2612, 2613, 2614, 2610
   5,    5,    6,   57,   56, 2615, 2616, 2617, 2613
   6,    6,    7,   58,   57, 2618, 2619, 2620, 2616
   7,    7,    8,   59,   58, 2621, 2622, 2623, 2619
   8,    8,    9,   60,   59, 2624, 2625, 2626, 2622
   9,    9,   10,   61,   60, 2627, 2628, 2629, 2625
  10,   10,   11,   62,   61, 2630, 2631, 2632, 2628
  11,   11,   12,   63,   62, 2633, 2634, 2635, 2631
  12,   12,   13,   64,   63, 2636, 2637, 2638, 2634
  13,   13,   14,   65,   64, 2639, 2640, 2641, 2637
  14,   14,   15,   66,   65, 2642, 2643, 2644, 2640
  15,   15,   16,   67,   66, 2645, 2646, 2647, 2643
  16,   16,   17,   68,   67, 2648, 2649, 2650, 2646
  17,   17,   18,   69,   68, 2651, 2652, 2653, 2649
  18,   18,   19,   70,   69, 2654, 2655, 2656, 2652
  19,   19,   20,   71,   70, 2657, 2658, 2659, 2655
  20,   20,   21,   72,   71, 2660, 2661, 2662, 2658
** ... 2480 like lines cut
*Nset, nset=Set-1, generate
    1,  7701,     1
*Elset, elset=Set-1, generate
    1,  2500,     1
** Section: Section-1
*Solid Section, elset=Set-1, material=Material-1
1.,
*End Part
**  
**
** ASSEMBLY
**
*Assembly, name=Assembly
**  
*Instance, name=Part-1-1, part=Part-1
*End Instance
**  
*Nset, nset=Set-1, instance=Part-1-1
    1,    2,    3,    4,    5,    6,    7,    8,    9,   10,   11,   12,   13,   14,   15,   16
   17,   18,   19,   20,   21,   22,   23,   24,   25,   26,   27,   28,   29,   30,   31,   32
   33,   34,   35,   36,   37,   38,   39,   40,   41,   42,   43,   44,   45,   46,   47,   48
   49,   50,   51, 2602, 2606, 2609, 2612, 2615, 2618, 2621, 2624, 2627, 2630, 2633, 2636, 2639
 2642, 2645, 2648, 2651, 2654, 2657, 2660, 2663, 2666, 2669, 2672, 2675, 2678, 2681, 2684, 2687
 2690, 2693, 2696, 2699, 2702, 2705, 2708, 2711, 2714, 2717, 2720, 2723, 2726, 2729, 2732, 2735
 2738, 2741, 2744, 2747, 2750
*Elset, elset=Set-1, instance=Part-1-1, generate
  1,  50,   1
*Elset, elset=_Surf-1_S3, internal, instance=Part-1-1, generate
 2451,  2500,     1
*Surface, type=ELEMENT, name=Surf-1
_Surf-1_S3, S3
*End Assembly
** 
** MATERIALS
** 
*Material, name=Material-1
*Elastic
50., 0.4949
** ----------------------------------------------------------------
** 
** STEP: Step-1
** 
*Step, name=Step-1, nlgeom=NO
*Static
1., 1., 1e-05, 1.
** 
** BOUNDARY CONDITIONS
** 
** Name: BC-1 Type: Symmetry/Antisymmetry/Encastre
*Boundary
Set-1, ENCASTRE
** 
** LOADS
** 
** Name: Load-1   Type: Surface traction
*Dsload
Surf-1, TRSHR, 1., 0., 1., 0.
** 
** OUTPUT REQUESTS
** 
*Restart, write, frequency=0
** 
** FIELD OUTPUT: F-Output-1
** 
*Output, field, variable=PRESELECT
** 
** HISTORY OUTPUT: H-Output-1
** 
*Output, history, variable=PRESELECT
*End Step
