*Heading
** Job name: 50_CPE3 Model name: Model-1
** Generated by: Abaqus/CAE 2020
*Preprint, echo=NO, model=NO, history=NO, contact=NO
**
** PARTS
**
*Part, name=Part-1
*Node
      1,           0.,          44.
      2,           0.,   43.1199989
      3,           0.,   42.2400017
      4,           0.,   41.3600006
      5,           0.,   40.4799995
      6,           0.,   39.5999985
      7,           0.,   38.7200012
      8,           0.,   37.8400002
      9,           0.,   36.9599991
     10,           0.,   36.0800018
     11,           0.,   35.2000008
     12,           0.,   34.3199997
     13,           0.,   33.4399986
     14,           0.,   32.5600014
     15,           0.,   31.6800003
     16,           0.,   30.7999992
     17,           0.,   29.9200001
     18,           0.,   29.0400009
     19,           0.,   28.1599998
     20,           0.,   27.2800007
** ... 2581 like lines cut
*Element, type=CPE3
   1,    1,    2,   53
   2,   53,   52,    1
   3,    2,    3,   54
   4,   54,   53,    2
   5,    3,    4,   55
   6,   55,   54,    3
   7,    4,    5,   56
   8,   56,   55,    4
   9,    5,    6,   57
  10,   57,   56,    5
  11,    6,    7,   58
  12,   58,   57,    6
  13,    7,    8,   59
  14,   59,   58,    7
  15,    8,    9,   60
  16,   60,   59,    8
  17,    9,   10,   61
  18,   61,   60,    9
  19,   10,   11,   62
  20,   62,   61,   10
** ... 4980 like lines cut
*Nset, nset=Set-1, generate
    1,  2601,     1
*Elset, elset=Set-1, generate
    1,  5000,     1
*Nset, nset=Set-24, generate
    1,  2601,     1
*Elset, elset=Set-24, generate
    1,  5000,     1
** Section: Section-1
*Solid Section, elset=Set-1, material=Material-1
1.,
*End Part
**  
**
** ASSEMBLY
**
*Assembly, name=Assembly
**  
*Instance, name=Part-1-1, part=Part-1
*End Instance
**  
*Instance, name=Part-1-2, part=Part-1
*End Instance
**  
*Nset, nset=Set-1, instance=Part-1-1, generate
  1,  51,   1
*Elset, elset=Set-1, instance=Part-1-1, generate
  1,  99,   2
*Elset, elset=_Surf-1_S1, internal, instance=Part-1-1, generate
 4902,  5000,     2
*Surface, type=ELEMENT, name=Surf-1
_Surf-1_S1, S1
*End Assembly
** 
** MATERIALS
** 
*Material, name=Material-1
*Elastic
50., 0.3
** ----------------------------------------------------------------
** 
** STEP: Step-1
** 
*Step, name=Step-1, nlgeom=NO
*Static
1., 1., 1e-05, 1.
** 
** BOUNDARY CONDITIONS
** 
** Name: BC-1 Type: Symmetry/Antisymmetry/Encastre
*Boundary
Set-1, ENCASTRE
** 
** LOADS
** 
** Name: Load-1   Type: Surface traction
*Dsload
Surf-1, TRSHR, 1., 0., 1., 0.
** 
** OUTPUT REQUESTS
** 
*Restart, write, frequency=0
** 
** FIELD OUTPUT: F-Output-1
** 
*Output, field, variable=PRESELECT
** 
** HISTORY OUTPUT: H-Output-1
** 
*Output, history, variable=PRESELECT
*End Step
