*Heading
** Job name: 6_CPE8 Model name: Model-1
** Generated by: Abaqus/CAE 2020
*Preprint, echo=NO, model=NO, history=NO, contact=NO
**
** PARTS
**
*Part, name=Part-1
*Node
      1,           0.,          44.
      2,           0.,   36.6666679
      3,           0.,    29.333334
      4,           0.,          22.
      5,           0.,    14.666667
      6,           0.,   7.33333349
      7,           0.,           0.
      8,           8.,   46.6666679
      9,           8.,   40.1111107
     10,           8.,   33.5555573
     11,           8.,          27.
     12,           8.,   20.4444447
     13,           8.,   13.8888893
     14,           8.,   7.33333349
     15,          16.,   49.3333321
     16,          16.,   43.5555573
     17,          16.,   37.7777786
     18,          16.,          32.
     19,          16.,   26.2222214
     20,          16.,   20.4444447
** ... 113 like lines cut
*Element, type=CPE8
 1,   1,   2,   9,   8,  50,  51,  52,  53
 2,   2,   3,  10,   9,  54,  55,  56,  51
 3,   3,   4,  11,  10,  57,  58,  59,  55
 4,   4,   5,  12,  11,  60,  61,  62,  58
 5,   5,   6,  13,  12,  63,  64,  65,  61
 6,   6,   7,  14,  13,  66,  67,  68,  64
 7,   8,   9,  16,  15,  52,  69,  70,  71
 8,   9,  10,  17,  16,  56,  72,  73,  69
 9,  10,  11,  18,  17,  59,  74,  75,  72
10,  11,  12,  19,  18,  62,  76,  77,  74
11,  12,  13,  20,  19,  65,  78,  79,  76
12,  13,  14,  21,  20,  68,  80,  81,  78
13,  15,  16,  23,  22,  70,  82,  83,  84
14,  16,  17,  24,  23,  73,  85,  86,  82
15,  17,  18,  25,  24,  75,  87,  88,  85
16,  18,  19,  26,  25,  77,  89,  90,  87
17,  19,  20,  27,  26,  79,  91,  92,  89
18,  20,  21,  28,  27,  81,  93,  94,  91
19,  22,  23,  30,  29,  83,  95,  96,  97
20,  23,  24,  31,  30,  86,  98,  99,  95
** ... 16 like lines cut
*Nset, nset=Set-1, generate
   1,  133,    1
*Elset, elset=Set-1, generate
  1,  36,   1
** Section: Section-1
*Solid Section, elset=Set-1, material=Material-1
1.,
*End Part
**  
**
** ASSEMBLY
**
*Assembly, name=Assembly
**  
*Instance, name=Part-1-1, part=Part-1
*End Instance
**  
*Nset, nset=Set-1, instance=Part-1-1
  1,  2,  3,  4,  5,  6,  7, 50, 54, 57, 60, 63, 66
*Elset, elset=Set-1, instance=Part-1-1, generate
 1,  6,  1
*Elset, elset=_Surf-1_S3, internal, instance=Part-1-1, generate
 31,  36,   1
*Surface, type=ELEMENT, name=Surf-1
_Surf-1_S3, S3
*End Assembly
** 
** MATERIALS
** 
*Material, name=Material-1
*Elastic
50., 0.4949
** ----------------------------------------------------------------
** 
** STEP: Step-1
** 
*Step, name=Step-1, nlgeom=NO
*Static
1., 1., 1e-05, 1.
** 
** BOUNDARY CONDITIONS
** 
** Name: BC-1 Type: Symmetry/Antisymmetry/Encastre
*Boundary
Set-1, ENCASTRE
** 
** LOADS
** 
** Name: Load-1   Type: Surface traction
*Dsload
Surf-1, TRSHR, 1., 0., 1., 0.
** 
** OUTPUT REQUESTS
** 
*Restart, write, frequency=0
** 
** FIELD OUTPUT: F-Output-1
** 
*Output, field, variable=PRESELECT
** 
** HISTORY OUTPUT: H-Output-1
** 
*Output, history, variable=PRESELECT
*End Step
