*Heading
** Job name: 8_CPE4 Model name: Model-1
** Generated by: Abaqus/CAE 2022
*Preprint, echo=NO, model=NO, history=NO, contact=NO
**
** PARTS
**
*Part, name=Part-1
*Node
      1,           0.,          44.
      2,           0.,         38.5
      3,           0.,          33.
      4,           0.,         27.5
      5,           0.,          22.
      6,           0.,         16.5
      7,           0.,          11.
      8,           0.,          5.5
      9,           0.,           0.
     10,           6.,          46.
     11,           6.,      40.9375
     12,           6.,       35.875
     13,           6.,      30.8125
     14,           6.,        25.75
     15,           6.,      20.6875
     16,           6.,       15.625
     17,           6.,      10.5625
     18,           6.,          5.5
     19,          12.,          48.
     20,          12.,       43.375
** ... 61 like lines cut
*Element, type=CPE4
 1,  1,  2, 11, 10
 2,  2,  3, 12, 11
 3,  3,  4, 13, 12
 4,  4,  5, 14, 13
 5,  5,  6, 15, 14
 6,  6,  7, 16, 15
 7,  7,  8, 17, 16
 8,  8,  9, 18, 17
 9, 10, 11, 20, 19
10, 11, 12, 21, 20
11, 12, 13, 22, 21
12, 13, 14, 23, 22
13, 14, 15, 24, 23
14, 15, 16, 25, 24
15, 16, 17, 26, 25
16, 17, 18, 27, 26
17, 19, 20, 29, 28
18, 20, 21, 30, 29
19, 21, 22, 31, 30
20, 22, 23, 32, 31
** ... 44 like lines cut
*Nset, nset=Set-1, generate
  1,  81,   1
*Elset, elset=Set-1, generate
  1,  64,   1
*Nset, nset=Set-24, generate
  1,  81,   1
*Elset, elset=Set-24, generate
  1,  64,   1
** Section: Section-1
*Solid Section, elset=Set-1, material=Material-1
1.,
*End Part
**  
**
** ASSEMBLY
**
*Assembly, name=Assembly
**  
*Instance, name=Part-1-1, part=Part-1
*End Instance
**  
*Instance, name=Part-1-2, part=Part-1
*End Instance
**  
*Nset, nset=Set-1, instance=Part-1-1, generate
 1,  9,  1
*Elset, elset=Set-1, instance=Part-1-1, generate
 1,  8,  1
*Elset, elset=_Surf-1_S3, internal, instance=Part-1-1, generate
 57,  64,   1
*Surface, type=ELEMENT, name=Surf-1
_Surf-1_S3, S3
*End Assembly
** 
** MATERIALS
** 
*Material, name=Material-1
*Elastic
50., 0.4949
** ----------------------------------------------------------------
** 
** STEP: Step-1
** 
*Step, name=Step-1, nlgeom=NO
*Static
1., 1., 1e-05, 1.
** 
** BOUNDARY CONDITIONS
** 
** Name: BC-1 Type: Symmetry/Antisymmetry/Encastre
*Boundary
Set-1, ENCASTRE
** 
** LOADS
** 
** Name: Load-1   Type: Surface traction
*Dsload
Surf-1, TRSHR, 1., 0., 1., 0.
** 
** OUTPUT REQUESTS
** 
*Restart, write, frequency=0
** 
** FIELD OUTPUT: F-Output-1
** 
*Output, field, variable=PRESELECT
** 
** HISTORY OUTPUT: H-Output-1
** 
*Output, history, variable=PRESELECT
*End Step
